Version 4
SHEET 1 1092 680
SYMBOL /nmos 720 352 R0
SYMATTR InstName M1
SYMATTR Value NMOSn
SYMBOL /pmos 960 352 R0
SYMATTR InstName M2
SYMATTR Value PMOSn
