.model CMOSN NMOS LEVEL=2 TOX=7.200E-09
	+TPG=1 VTO=0.58
	+UO=300 GAMMA=0.5863
	+NSUB=2.7470E+16 NFS=1.98E+12 KF=1.4E-24 AF=0.8
	+CGDO=4.0241E-10 CGSO=4.0241E-10
	+CGBO=3.6144E-10 CJ=3.8541E-04 MJ=1.1854 CJSW=1.3940E-10
	+MJSW=0.125195 PB=0.8

