.model CMOSP PMOS LEVEL=2 PHI=0.600000 TOX=7.500E-09
	+VTO=-0.675
	+UO=109 GAMMA=0.4863
	+NSUB=1.8900E+16 NFS=3.46E+12 KF=3E-24 AF=1.2
	+CGDO=5.3752E-11 CGSO=5.3752E-11
	+CGBO=3.3650E-10 CJ=4.8447E-04 MJ=0.5027 CJSW=1.6457E-10
	+MJSW=0.217168 PB=0.85