Version 4
SHEET 1 1772 712
WIRE 768 208 768 192
WIRE 1552 320 1552 240
WIRE 1504 336 1312 336
WIRE 768 352 768 288
WIRE 1312 352 1312 336
WIRE 416 416 416 384
WIRE 720 432 608 432
WIRE 608 464 608 432
WIRE 768 496 768 448
WIRE 1552 496 1552 416
WIRE 416 544 416 496
WIRE 608 576 608 544
WIRE 1552 656 1552 576
WIRE 1568 656 1552 656
WIRE 1568 672 1568 656
FLAG 416 384 VDD
FLAG 416 544 0
FLAG 608 576 0
FLAG 768 496 0
FLAG 768 192 VDD
FLAG 1552 240 0
FLAG 1568 672 0
FLAG 1312 432 0
DATAFLAG 768 304 ""
SYMBOL /nmos 720 352 R0
SYMATTR InstName M1
SYMATTR Value CMOSN w=2u l=1u
SYMBOL /pmos 1504 416 M180
SYMATTR InstName M2
SYMATTR Value CMOSP w=2u l=1u
SYMBOL voltage 608 448 R0
WINDOW 123 0 0 Left 0
WINDOW 39 0 0 Left 0
SYMATTR InstName V1
SYMATTR Value 1.6
SYMBOL res 752 192 R0
SYMATTR InstName R1
SYMATTR Value 1
SYMBOL voltage 416 400 R0
WINDOW 123 0 0 Left 0
WINDOW 39 0 0 Left 0
SYMATTR InstName V2
SYMATTR Value 10
SYMBOL voltage 1312 336 R0
WINDOW 123 0 0 Left 0
WINDOW 39 0 0 Left 0
SYMATTR InstName V3
SYMATTR Value -2
SYMBOL voltage 1552 480 R0
WINDOW 123 0 0 Left 0
WINDOW 39 0 0 Left 0
SYMATTR InstName V4
SYMATTR Value -10
TEXT 352 208 Left 2 !.include NMOSPLEASE.MOD
TEXT 360 248 Left 2 !.include PMOS.MOD
TEXT 350 696 Left 2 !.op
